#	Name: SM09_micro003
#	Creating user name:	bogdan
#	Creation time:	28. 12. 2017 23:56

#	Modifying user name:	bogdan
#	Modification time:	28. 12. 2017 23:56

#	Program:	corina 3.60 0028  24.02.2015

@<TRIPOS>MOLECULE
SM09_micro003
  32   34    0    0    0
SMALL
NO_CHARGES


@<TRIPOS>ATOM
   1 C1             0.7696     1.6888    -4.2529 C.3     
   2 O2             0.8093     0.2689    -4.4082 O.3     
   3 C3             1.0080    -0.4694    -3.2847 C.ar    
   4 C4             1.1559     0.1609    -2.0567 C.ar    
   5 C5             1.3580    -0.5882    -0.9134 C.ar    
   6 C6             1.4135    -1.9666    -0.9883 C.ar    
   7 C7             1.2667    -2.6029    -2.2145 C.ar    
   8 C8             1.0574    -1.8520    -3.3633 C.ar    
   9 N9             1.3238    -3.9974    -2.2906 N.pl3   
  10 C10            1.8444    -4.6061    -3.4138 C.ar    
  11 C11            1.8050    -6.0142    -3.5627 C.ar    
  12 C12            1.2428    -6.8497    -2.5912 C.ar    
  13 C13            1.2332    -8.1990    -2.7899 C.ar    
  14 C14            1.7747    -8.7553    -3.9454 C.ar    
  15 C15            2.3300    -7.9687    -4.9104 C.ar    
  16 C16            2.3563    -6.5780    -4.7389 C.ar    
  17 N17            2.8904    -5.7588    -5.6571 N.ar    
  18 C18            2.8992    -4.4611    -5.4659 C.ar    
  19 N19            2.3906    -3.8886    -4.3864 N.ar    
  20 H20           -0.0430     1.9579    -3.5782 H       
  21 H21            1.7161     2.0356    -3.8382 H       
  22 H22            0.6055     2.1561    -5.2239 H       
  23 H23            1.1132     1.2383    -1.9950 H       
  24 H24            1.4730    -0.0952     0.0406 H       
  25 H25            1.5716    -2.5498    -0.0931 H       
  26 H26            0.9429    -2.3440    -4.3179 H       
  27 H27            0.9974    -4.5372    -1.5537 H       
  28 H28            0.8201    -6.4293    -1.6907 H       
  29 H29            0.7998    -8.8447    -2.0405 H       
  30 H30            1.7549    -9.8268    -4.0793 H       
  31 H31            2.7470    -8.4143    -5.8014 H       
  32 H32            3.3376    -3.8310    -6.2256 H       
@<TRIPOS>BOND
   1    1    2 1
   2    1   20 1
   3    1   21 1
   4    1   22 1
   5    2    3 1
   6    3    8 ar
   7    3    4 ar
   8    4    5 ar
   9    4   23 1
  10    5    6 ar
  11    5   24 1
  12    6    7 ar
  13    6   25 1
  14    7    8 ar
  15    7    9 1
  16    8   26 1
  17    9   10 1
  18    9   27 1
  19   10   19 ar
  20   10   11 ar
  21   11   16 ar
  22   11   12 ar
  23   12   13 ar
  24   12   28 1
  25   13   14 ar
  26   13   29 1
  27   14   15 ar
  28   14   30 1
  29   15   16 ar
  30   15   31 1
  31   16   17 ar
  32   17   18 ar
  33   18   19 ar
  34   18   32 1

#	End of record

