#Caution: 
#Input/Original file: SM11_micro005.pdb 
#This SM11_micro005.mol2 is synthesized from SM11_micro005.pdb using Open Babel 2.3.0
#

@<TRIPOS>MOLECULE
SM11_micro005
 25 27 0 0 0
SMALL
GASTEIGER

@<TRIPOS>ATOM
      1  C1        -0.0170    1.3790    0.0100 C.ar    1  UNK1       -0.0616
      2  C2         1.1700    2.0890    0.0020 C.ar    1  UNK1       -0.0598
      3  C3         2.3770    1.4190   -0.0130 C.ar    1  UNK1       -0.0362
      4  C4         2.4000    0.0310   -0.0210 C.ar    1  UNK1        0.0677
      5  C5         1.2070   -0.6800   -0.0130 C.ar    1  UNK1       -0.0362
      6  C6         0.0020   -0.0040    0.0020 C.ar    1  UNK1       -0.0598
      7  N7         3.6230   -0.6510   -0.0370 N.ar    1  UNK1       -0.2139
      8  C8         3.8850   -1.8390    0.5840 C.ar    1  UNK1        0.1681
      9  C9         5.2300   -2.1500    0.3020 C.ar    1  UNK1        0.0784
     10  C10        5.7370   -1.1050   -0.5020 C.ar    1  UNK1        0.0624
     11  N11        4.7860   -0.2360   -0.6990 N.ar    1  UNK1       -0.1721
     12  C12        5.7640   -3.3410    0.8300 C.ar    1  UNK1        0.1302
     13  N13        4.9750   -4.1130    1.5690 N.ar    1  UNK1       -0.2204
     14  C14        3.7190   -3.7800    1.8060 C.ar    1  UNK1        0.1204
     15  N15        3.1760   -2.6790    1.3350 N.ar    1  UNK1       -0.2158
     16  N16        7.0760   -3.6970    0.5860 N.pl3   1  UNK1       -0.3425
     17  H17       -0.9600    1.9050    0.0260 H       1  UNK1        0.0618
     18  H18        1.1520    3.1690    0.0080 H       1  UNK1        0.0618
     19  H19        3.3040    1.9750   -0.0200 H       1  UNK1        0.0639
     20  H20        1.2210   -1.7600   -0.0190 H       1  UNK1        0.0639
     21  H21       -0.9260   -0.5560    0.0080 H       1  UNK1        0.0618
     22  H22        6.7420   -1.0400   -0.8910 H       1  UNK1        0.0856
     23  H23        3.1130   -4.4380    2.4120 H       1  UNK1        0.1048
     24  H24        7.6420   -3.1250    0.0450 H       1  UNK1        0.1437
     25  H25        7.4320   -4.5200    0.9560 H       1  UNK1        0.1437
@<TRIPOS>BOND
     1     1     6   ar
     2     1     2   ar
     3     1    17    1
     4     2     3   ar
     5     2    18    1
     6     3     4   ar
     7     3    19    1
     8     4     5   ar
     9     4     7    1
    10     5     6   ar
    11     5    20    1
    12     6    21    1
    13     7    11   ar
    14     7     8   ar
    15     8    15   ar
    16     8     9   ar
    17     9    10   ar
    18     9    12   ar
    19    10    11   ar
    20    10    22    1
    21    12    13   ar
    22    12    16    1
    23    13    14   ar
    24    14    15   ar
    25    14    23    1
    26    16    24    1
    27    16    25    1
