#	Name: SM12_micro012
#	Creating user name:	bogdan
#	Creation time:	28. 12. 2017 23:57

#	Modifying user name:	bogdan
#	Modification time:	28. 12. 2017 23:57

#	Program:	corina 3.60 0028  24.02.2015

@<TRIPOS>MOLECULE
SM12_micro012
  28   30    0    0    0
SMALL
NO_CHARGES


@<TRIPOS>ATOM
   1 C1             0.0254     1.3039     0.6820 C.ar    
   2 C2             1.2096     2.0356     0.6651 C.ar    
   3 C3             2.4071     1.4291     0.4280 C.ar    
   4 C4             2.4493     0.0472     0.1980 C.ar    
   5 C5             1.2434    -0.6955     0.2161 C.ar    
   6 C6             0.0307    -0.0422     0.4620 C.ar    
   7 C7             1.3133    -2.0902    -0.0187 C.ar    
   8 N8             2.5047    -2.6286    -0.2434 N.ar    
   9 C9             3.6051    -1.8937    -0.2507 C.ar    
  10 N10            3.6003    -0.5988    -0.0396 N.ar    
  11 N11            0.1738    -2.8678    -0.0134 N.pl3   
  12 C12            0.2754    -4.2572    -0.1268 C.ar    
  13 C13           -0.6925    -4.9715    -0.8222 C.ar    
  14 C14           -0.5896    -6.3440    -0.9332 C.ar    
  15 C15            0.4752    -7.0086    -0.3527 C.ar    
  16 C16            1.4410    -6.3008     0.3411 C.ar    
  17 C17            1.3468    -4.9260     0.4504 C.ar    
  18 Cl18           2.7756    -7.1394     1.0687 Cl      
  19 H19           -0.9096     1.8082     0.8764 H       
  20 H20            1.1789     3.1006     0.8421 H       
  21 H21            3.3177     2.0098     0.4172 H       
  22 H22           -0.8942    -0.5997     0.4782 H       
  23 H23            4.5498    -2.3819    -0.4389 H       
  24 H24           -0.6978    -2.4503     0.0690 H       
  25 H25           -1.5249    -4.4536    -1.2753 H       
  26 H26           -1.3419    -6.8993    -1.4737 H       
  27 H27            0.5530    -8.0822    -0.4407 H       
  28 H28            2.1006    -4.3737     0.9919 H       
@<TRIPOS>BOND
   1    1    6 ar
   2    1    2 ar
   3    1   19 1
   4    2    3 ar
   5    2   20 1
   6    3    4 ar
   7    3   21 1
   8    4   10 ar
   9    4    5 ar
  10    5    6 ar
  11    5    7 ar
  12    6   22 1
  13    7    8 ar
  14    7   11 1
  15    8    9 ar
  16    9   10 ar
  17    9   23 1
  18   11   12 1
  19   11   24 1
  20   12   17 ar
  21   12   13 ar
  22   13   14 ar
  23   13   25 1
  24   14   15 ar
  25   14   26 1
  26   15   16 ar
  27   15   27 1
  28   16   17 ar
  29   16   18 1
  30   17   28 1

#	End of record

