#	Name: SM07_micro004
#	Creating user name:	bogdan
#	Creation time:	28. 12. 2017 23:56

#	Modifying user name:	bogdan
#	Modification time:	28. 12. 2017 23:56

#	Program:	corina 3.60 0028  24.02.2015

@<TRIPOS>MOLECULE
SM07_micro004
  31   33    0    0    0
SMALL
NO_CHARGES


@<TRIPOS>ATOM
   1 C1            -0.0167     1.3781     0.0096 C.ar    
   2 C2             1.1709     2.0855     0.0021 C.ar    
   3 C3             2.3773     1.4107    -0.0130 C.ar    
   4 C4             2.3960     0.0285    -0.0201 C.ar    
   5 C5             1.2084    -0.6789    -0.0117 C.ar    
   6 C6             0.0021    -0.0041     0.0020 C.ar    
   7 C7             3.7112    -0.7071    -0.0376 C.3     
   8 N8             4.1518    -0.9524     1.3379 N.pl3   
   9 C9             5.3371    -1.6152     1.5741 C.ar    
  10 C10            5.7787    -1.8678     2.8961 C.ar    
  11 C11            5.0439    -1.4635     4.0161 C.ar    
  12 C12            5.5194    -1.7351     5.2652 C.ar    
  13 C13            6.7252    -2.4083     5.4403 C.ar    
  14 C14            7.4645    -2.8154     4.3698 C.ar    
  15 C15            7.0053    -2.5532     3.0719 C.ar    
  16 N16            7.6934    -2.9324     1.9846 N.ar    
  17 C17            7.2354    -2.6717     0.7834 C.ar    
  18 N18            6.0927    -2.0387     0.5698 N.ar    
  19 H19           -0.9591     1.9053     0.0259 H       
  20 H20            1.1563     3.1654     0.0076 H       
  21 H21            3.3051     1.9634    -0.0196 H       
  22 H22            1.2231    -1.7588    -0.0176 H       
  23 H23           -0.9258    -0.5567     0.0090 H       
  24 H24            3.5884    -1.6586    -0.5549 H       
  25 H25            4.4573    -0.1052    -0.5563 H       
  26 H26            3.6095    -0.6484     2.0824 H       
  27 H27            4.1075    -0.9399     3.8923 H       
  28 H28            4.9529    -1.4233     6.1302 H       
  29 H29            7.0807    -2.6108     6.4398 H       
  30 H30            8.3983    -3.3364     4.5209 H       
  31 H31            7.8151    -2.9914    -0.0699 H       
@<TRIPOS>BOND
   1    1    6 ar
   2    1    2 ar
   3    1   19 1
   4    2    3 ar
   5    2   20 1
   6    3    4 ar
   7    3   21 1
   8    4    5 ar
   9    4    7 1
  10    5    6 ar
  11    5   22 1
  12    6   23 1
  13    7    8 1
  14    7   24 1
  15    7   25 1
  16    8    9 1
  17    8   26 1
  18    9   18 ar
  19    9   10 ar
  20   10   15 ar
  21   10   11 ar
  22   11   12 ar
  23   11   27 1
  24   12   13 ar
  25   12   28 1
  26   13   14 ar
  27   13   29 1
  28   14   15 ar
  29   14   30 1
  30   15   16 ar
  31   16   17 ar
  32   17   18 ar
  33   17   31 1

#	End of record

