#	Name: SM02_micro002
#	Creating user name:	bogdan
#	Creation time:	28. 12. 2017 23:56

#	Modifying user name:	bogdan
#	Modification time:	28. 12. 2017 23:56

#	Program:	corina 3.60 0028  24.02.2015

@<TRIPOS>MOLECULE
SM02_micro002
  31   33    0    0    0
SMALL
NO_CHARGES


@<TRIPOS>ATOM
   1 C1             0.0250     1.3037     0.6823 C.ar    
   2 C2             1.2091     2.0355     0.6664 C.ar    
   3 C3             2.4069     1.4289     0.4306 C.ar    
   4 C4             2.4492     0.0470     0.2004 C.ar    
   5 C5             1.2432    -0.6956     0.2171 C.ar    
   6 C6             0.0303    -0.0423     0.4621 C.ar    
   7 C7             1.3133    -2.0903    -0.0179 C.ar    
   8 N8             2.5050    -2.6287    -0.2413 N.ar    
   9 C9             3.6054    -1.8939    -0.2472 C.ar    
  10 N10            3.6005    -0.5990    -0.0359 N.ar    
  11 N11            0.1738    -2.8678    -0.0141 N.pl3   
  12 C12            0.2754    -4.2572    -0.1275 C.ar    
  13 C13           -0.6921    -4.9715    -0.8232 C.ar    
  14 C14           -0.5885    -6.3440    -0.9338 C.ar    
  15 C15            0.4767    -7.0077    -0.3526 C.ar    
  16 C16            1.4410    -6.3000     0.3409 C.ar    
  17 C17            1.3467    -4.9263     0.4501 C.ar    
  18 C18            2.5996    -7.0275     0.9730 C.3     
  19 F19            2.4808    -8.3990     0.7240 F       
  20 F20            3.7990    -6.5568     0.4281 F       
  21 F21            2.5944    -6.8021     2.3537 F       
  22 H22           -0.9102     1.8080     0.8759 H       
  23 H23            1.1783     3.1004     0.8432 H       
  24 H24            3.3175     2.0095     0.4210 H       
  25 H25           -0.8945    -0.5998     0.4772 H       
  26 H26            4.5504    -2.3822    -0.4340 H       
  27 H27           -0.6979    -2.4502     0.0674 H       
  28 H28           -1.5244    -4.4539    -1.2767 H       
  29 H29           -1.3402    -6.8998    -1.4745 H       
  30 H30            0.5551    -8.0813    -0.4402 H       
  31 H31            2.1003    -4.3740     0.9919 H       
@<TRIPOS>BOND
   1    1    6 ar
   2    1    2 ar
   3    1   22 1
   4    2    3 ar
   5    2   23 1
   6    3    4 ar
   7    3   24 1
   8    4   10 ar
   9    4    5 ar
  10    5    6 ar
  11    5    7 ar
  12    6   25 1
  13    7    8 ar
  14    7   11 1
  15    8    9 ar
  16    9   10 ar
  17    9   26 1
  18   11   12 1
  19   11   27 1
  20   12   17 ar
  21   12   13 ar
  22   13   14 ar
  23   13   28 1
  24   14   15 ar
  25   14   29 1
  26   15   16 ar
  27   15   30 1
  28   16   17 ar
  29   16   18 1
  30   17   31 1
  31   18   19 1
  32   18   20 1
  33   18   21 1

#	End of record

