#	Name: SM11_micro005
#	Creating user name:	bogdan
#	Creation time:	28. 12. 2017 23:57

#	Modifying user name:	bogdan
#	Modification time:	28. 12. 2017 23:57

#	Program:	corina 3.60 0028  24.02.2015

@<TRIPOS>MOLECULE
SM11_micro005
  25   27    0    0    0
SMALL
NO_CHARGES


@<TRIPOS>ATOM
   1 C1            -0.0167     1.3786     0.0096 C.ar    
   2 C2             1.1696     2.0892     0.0021 C.ar    
   3 C3             2.3774     1.4194    -0.0135 C.ar    
   4 C4             2.3996     0.0309    -0.0212 C.ar    
   5 C5             1.2065    -0.6797    -0.0132 C.ar    
   6 C6             0.0021    -0.0041     0.0020 C.ar    
   7 N7             3.6227    -0.6513    -0.0375 N.2     
   8 C8             3.8854    -1.8389     0.5835 C.ar    
   9 C9             5.2302    -2.1497     0.3015 C.ar    
  10 C10            5.7366    -1.1052    -0.5016 C.2     
  11 N11            4.7857    -0.2363    -0.6985 N.pl3   
  12 C12            5.7644    -3.3409     0.8301 C.ar    
  13 N13            4.9753    -4.1135     1.5686 N.ar    
  14 C14            3.7188    -3.7799     1.8062 C.ar    
  15 N15            3.1759    -2.6789     1.3348 N.ar    
  16 N16            7.0762    -3.6973     0.5863 N.pl3   
  17 H17           -0.9598     1.9047     0.0260 H       
  18 H18            1.1517     3.1690     0.0081 H       
  19 H19            3.3035     1.9750    -0.0201 H       
  20 H20            1.2205    -1.7596    -0.0191 H       
  21 H21           -0.9261    -0.5562     0.0083 H       
  22 H22            6.7418    -1.0396    -0.8912 H       
  23 H23            3.1134    -4.4382     2.4116 H       
  24 H24            7.6418    -3.1245     0.0452 H       
  25 H25            7.4319    -4.5204     0.9563 H       
@<TRIPOS>BOND
   1    1    6 ar
   2    1    2 ar
   3    1   17 1
   4    2    3 ar
   5    2   18 1
   6    3    4 ar
   7    3   19 1
   8    4    5 ar
   9    4    7 1
  10    5    6 ar
  11    5   20 1
  12    6   21 1
  13    7   11 1
  14    7    8 2
  15    8   15 ar
  16    8    9 ar
  17    9   10 2
  18    9   12 ar
  19   10   11 1
  20   10   22 1
  21   12   13 ar
  22   12   16 1
  23   13   14 ar
  24   14   15 ar
  25   14   23 1
  26   16   24 1
  27   16   25 1

#	End of record

