#	Name: SM04_micro003
#	Creating user name:	bogdan
#	Creation time:	28. 12. 2017 23:56

#	Modifying user name:	bogdan
#	Modification time:	28. 12. 2017 23:56

#	Program:	corina 3.60 0028  24.02.2015

@<TRIPOS>MOLECULE
SM04_micro003
  31   33    0    0    0
SMALL
NO_CHARGES


@<TRIPOS>ATOM
   1 C1            -0.0164     1.3596     0.0095 C.ar    
   2 C2             1.1683     2.0907     0.0021 C.ar    
   3 C3             2.3796     1.4657    -0.0127 C.ar    
   4 C4             2.4355     0.0653    -0.0207 C.ar    
   5 C5             1.2291    -0.6765    -0.0132 C.ar    
   6 C6             0.0021    -0.0041     0.0020 C.ar    
   7 C7             1.3132    -2.0901    -0.0210 C.ar    
   8 N8             2.5175    -2.6459    -0.0350 N.ar    
   9 C9             3.6179    -1.9109    -0.0416 C.ar    
  10 N10            3.6005    -0.5991    -0.0349 N.ar    
  11 N11            0.1747    -2.8673    -0.0138 N.pl3   
  12 C12            0.2849    -4.3281    -0.0222 C.3     
  13 C13           -1.0940    -4.9359    -0.0118 C.ar    
  14 C14           -1.7170    -5.2153     1.1903 C.ar    
  15 C15           -2.9816    -5.7728     1.2004 C.ar    
  16 C16           -3.6242    -6.0512     0.0072 C.ar    
  17 C17           -3.0003    -5.7714    -1.1955 C.ar    
  18 C18           -1.7379    -5.2087    -1.2044 C.ar    
  19 Cl19          -5.2124    -6.7520     0.0191 Cl      
  20 H20           -0.9630     1.8794     0.0259 H       
  21 H21            1.1270     3.1699     0.0079 H       
  22 H22            3.2904     2.0460    -0.0187 H       
  23 H23           -0.9234    -0.5608     0.0082 H       
  24 H24            4.5737    -2.4137    -0.0527 H       
  25 H25           -0.6994    -2.4469    -0.0033 H       
  26 H26            0.8159    -4.6473    -0.9189 H       
  27 H27            0.8332    -4.6561     0.8609 H       
  28 H28           -1.2151    -4.9983     2.1216 H       
  29 H29           -3.4680    -5.9914     2.1396 H       
  30 H30           -3.5012    -5.9888    -2.1273 H       
  31 H31           -1.2509    -4.9898    -2.1432 H       
@<TRIPOS>BOND
   1    1    6 ar
   2    1    2 ar
   3    1   20 1
   4    2    3 ar
   5    2   21 1
   6    3    4 ar
   7    3   22 1
   8    4   10 ar
   9    4    5 ar
  10    5    6 ar
  11    5    7 ar
  12    6   23 1
  13    7    8 ar
  14    7   11 1
  15    8    9 ar
  16    9   10 ar
  17    9   24 1
  18   11   12 1
  19   11   25 1
  20   12   13 1
  21   12   26 1
  22   12   27 1
  23   13   18 ar
  24   13   14 ar
  25   14   15 ar
  26   14   28 1
  27   15   16 ar
  28   15   29 1
  29   16   17 ar
  30   16   19 1
  31   17   18 ar
  32   17   30 1
  33   18   31 1

#	End of record

