#	Name: SM16_micro002
#	Creating user name:	bogdan
#	Creation time:	28. 12. 2017 23:57

#	Modifying user name:	bogdan
#	Modification time:	28. 12. 2017 23:57

#	Program:	corina 3.60 0028  24.02.2015

@<TRIPOS>MOLECULE
SM16_micro002
  25   26    0    0    0
SMALL
NO_CHARGES


@<TRIPOS>ATOM
   1 C1            -0.0275     1.3594     0.0101 C.ar    
   2 C2             1.1532     2.0802     0.0010 C.ar    
   3 C3             2.3675     1.4229    -0.0143 C.ar    
   4 C4             2.4017     0.0257    -0.0204 C.ar    
   5 C5             1.2045    -0.6955    -0.0110 C.ar    
   6 C6            -0.0019    -0.0237     0.0041 C.ar    
   7 Cl7            1.2341    -2.4312    -0.0185 Cl      
   8 C8             3.6959    -0.6849    -0.0372 C.2     
   9 O9             4.2399    -0.9817     1.0087 O.2     
  10 N10            4.2741    -1.0044    -1.2120 N.am    
  11 C11            5.5408    -1.5875    -1.2299 C.ar    
  12 C12            5.9308    -2.4813    -0.2335 C.ar    
  13 C13            7.1923    -3.0368    -0.2877 C.ar    
  14 N14            8.0245    -2.7315    -1.2654 N.ar    
  15 C15            7.6926    -1.8902    -2.2266 C.ar    
  16 C16            6.4478    -1.2964    -2.2479 C.ar    
  17 Cl17           3.8478     2.3296    -0.0264 Cl      
  18 H18           -0.9740     1.8791     0.0266 H       
  19 H19            1.1252     3.1598     0.0053 H       
  20 H20           -0.9278    -0.5796     0.0117 H       
  21 H21            3.8092    -0.8287    -2.0450 H       
  22 H22            5.2549    -2.7349     0.5698 H       
  23 H23            7.5029    -3.7301     0.4799 H       
  24 H24            8.4034    -1.6669    -3.0084 H       
  25 H25            6.1825    -0.6088    -3.0374 H       
@<TRIPOS>BOND
   1    1    6 ar
   2    1    2 ar
   3    1   18 1
   4    2    3 ar
   5    2   19 1
   6    3    4 ar
   7    3   17 1
   8    4    5 ar
   9    4    8 1
  10    5    6 ar
  11    5    7 1
  12    6   20 1
  13    8    9 2
  14    8   10 am
  15   10   11 1
  16   10   21 1
  17   11   16 ar
  18   11   12 ar
  19   12   13 ar
  20   12   22 1
  21   13   14 ar
  22   13   23 1
  23   14   15 ar
  24   15   16 ar
  25   15   24 1
  26   16   25 1

#	End of record

