#	Name: SM08_micro010
#	Creating user name:	bogdan
#	Creation time:	28. 12. 2017 23:56

#	Modifying user name:	bogdan
#	Modification time:	28. 12. 2017 23:56

#	Program:	corina 3.60 0028  24.02.2015

@<TRIPOS>MOLECULE
SM08_micro010
  37   39    0    0    0
SMALL
NO_CHARGES


@<TRIPOS>ATOM
   1 C1            -0.0184     1.5028     0.0103 C.3     
   2 C2             0.0021    -0.0041     0.0020 C.ar    
   3 C3             0.0056    -0.6852    -1.2126 C.ar    
   4 C4             0.0239    -2.0459    -1.2538 C.ar    
   5 C5             0.0400    -2.7801    -0.0551 C.ar    
   6 C6             0.0368    -2.0842     1.1771 C.ar    
   7 C7             0.0225    -0.6835     1.1834 C.ar    
   8 C8             0.0531    -2.8262     2.3867 C.ar    
   9 C9             0.0715    -4.2092     2.2993 C.ar    
  10 C10            0.0735    -4.8209     1.0435 C.ar    
  11 N11            0.0586    -4.1178    -0.0689 N.ar    
  12 O12            0.0915    -6.1747     0.9686 O.3     
  13 C13            0.0899    -5.0478     3.5512 C.3     
  14 C14           -1.3247    -5.3468     3.9764 C.2     
  15 O15           -2.2525    -4.9224     3.3291 O.2     
  16 O16           -1.5538    -6.0845     5.0740 O.3     
  17 C17            0.0510    -2.1439     3.7015 C.ar    
  18 C18            1.1332    -1.3498     4.0799 C.ar    
  19 C19            1.1252    -0.7164     5.3058 C.ar    
  20 C20            0.0468    -0.8681     6.1589 C.ar    
  21 C21           -1.0297    -1.6545     5.7892 C.ar    
  22 C22           -1.0358    -2.2884     4.5635 C.ar    
  23 H23            1.0042     1.8801     0.0026 H       
  24 H24           -0.5455     1.8639    -0.8728 H       
  25 H25           -0.5286     1.8543     0.9071 H       
  26 H26           -0.0067    -0.1254    -2.1361 H       
  27 H27            0.0257    -2.5593    -2.2039 H       
  28 H28            0.0200    -0.1449     2.1194 H       
  29 H29           -0.7865    -6.5794     0.9514 H       
  30 H30            0.6155    -5.9823     3.3549 H       
  31 H31            0.6007    -4.5036     4.3456 H       
  32 H32           -2.4777    -6.2498     5.3069 H       
  33 H33            1.9760    -1.2311     3.4150 H       
  34 H34            1.9627    -0.1011     5.5999 H       
  35 H35            0.0454    -0.3709     7.1177 H       
  36 H36           -1.8687    -1.7692     6.4594 H       
  37 H37           -1.8767    -2.9021     4.2759 H       
@<TRIPOS>BOND
   1    1    2 1
   2    1   23 1
   3    1   24 1
   4    1   25 1
   5    2    7 ar
   6    2    3 ar
   7    3    4 ar
   8    3   26 1
   9    4    5 ar
  10    4   27 1
  11    5   11 ar
  12    5    6 ar
  13    6    7 ar
  14    6    8 ar
  15    7   28 1
  16    8    9 ar
  17    8   17 1
  18    9   10 ar
  19    9   13 1
  20   10   11 ar
  21   10   12 1
  22   12   29 1
  23   13   14 1
  24   13   30 1
  25   13   31 1
  26   14   15 2
  27   14   16 1
  28   16   32 1
  29   17   22 ar
  30   17   18 ar
  31   18   19 ar
  32   18   33 1
  33   19   20 ar
  34   19   34 1
  35   20   21 ar
  36   20   35 1
  37   21   22 ar
  38   21   36 1
  39   22   37 1

#	End of record

