#	Name: SM15_micro002
#	Creating user name:	bogdan
#	Creation time:	28. 12. 2017 23:57

#	Modifying user name:	bogdan
#	Modification time:	28. 12. 2017 23:57

#	Program:	corina 3.60 0028  24.02.2015

@<TRIPOS>MOLECULE
SM15_micro002
  26   28    0    0    0
SMALL
NO_CHARGES


@<TRIPOS>ATOM
   1 C1            -0.0165     1.3619     0.0095 C.ar    
   2 C2             1.1674     2.0859     0.0021 C.ar    
   3 C3             2.3835     1.4366    -0.0135 C.ar    
   4 C4             2.4219     0.0491    -0.0213 C.ar    
   5 C5             1.2229    -0.6838    -0.0133 C.ar    
   6 C6             0.0021    -0.0041     0.0020 C.ar    
   7 N7             1.5620    -1.9987    -0.0238 N.2     
   8 C8             2.8579    -2.1172    -0.0373 C.2     
   9 N9             3.4400    -0.8855    -0.0364 N.pl3   
  10 C10            4.8166    -0.6160    -0.0491 C.ar    
  11 C11            5.3395     0.2848    -0.9670 C.ar    
  12 C12            6.6945     0.5501    -0.9787 C.ar    
  13 C13            7.5334    -0.0833    -0.0734 C.ar    
  14 C14            7.0115    -0.9836     0.8441 C.ar    
  15 C15            5.6559    -1.2456     0.8601 C.ar    
  16 O16            8.8676     0.1779    -0.0857 O.3     
  17 H17           -0.9620     1.8836     0.0259 H       
  18 H18            1.1359     3.1655     0.0082 H       
  19 H19            3.3019     2.0048    -0.0199 H       
  20 H20           -0.9252    -0.5577     0.0086 H       
  21 H21            3.3936    -3.0549    -0.0476 H       
  22 H22            4.6865     0.7777    -1.6721 H       
  23 H23            7.1014     1.2505    -1.6930 H       
  24 H24            7.6650    -1.4764     1.5486 H       
  25 H25            5.2497    -1.9465     1.5744 H       
  26 H26            9.1299     0.9122     0.4863 H       
@<TRIPOS>BOND
   1    1    6 ar
   2    1    2 ar
   3    1   17 1
   4    2    3 ar
   5    2   18 1
   6    3    4 ar
   7    3   19 1
   8    4    9 1
   9    4    5 ar
  10    5    6 ar
  11    5    7 1
  12    6   20 1
  13    7    8 2
  14    8    9 1
  15    8   21 1
  16    9   10 1
  17   10   15 ar
  18   10   11 ar
  19   11   12 ar
  20   11   22 1
  21   12   13 ar
  22   12   23 1
  23   13   14 ar
  24   13   16 1
  25   14   15 ar
  26   14   24 1
  27   15   25 1
  28   16   26 1

#	End of record

