#	Name: SM08_micro011
#	Creating user name:	bogdan
#	Creation time:	28. 12. 2017 23:56

#	Modifying user name:	bogdan
#	Modification time:	28. 12. 2017 23:56

#	Program:	corina 3.60 0028  24.02.2015

@<TRIPOS>MOLECULE
SM08_micro011
  37   39    0    0    0
SMALL
NO_CHARGES


@<TRIPOS>ATOM
   1 C1            -0.0184     1.5028     0.0103 C.3     
   2 C2             0.0021    -0.0041     0.0020 C.ar    
   3 C3             0.0057    -0.6857    -1.2070 C.ar    
   4 C4             0.0243    -2.0635    -1.2369 C.ar    
   5 C5             0.0400    -2.7795    -0.0443 C.ar    
   6 C6             0.0368    -2.0843     1.1777 C.ar    
   7 C7             0.0226    -0.6881     1.1851 C.ar    
   8 C8             0.0536    -2.8525     2.4329 C.2     
   9 C9             0.0718    -4.2198     2.3572 C.2     
  10 C10            0.0741    -4.8566     1.1032 C.2     
  11 O11            0.0904    -6.0749     1.0568 O.2     
  12 N12            0.0592    -4.1591    -0.0454 N.am    
  13 H13            0.0607    -4.6344    -0.8910 H       
  14 C14            0.0900    -5.0432     3.6193 C.3     
  15 C15           -1.3182    -5.4407     3.9801 C.2     
  16 O16           -2.2417    -5.0912     3.2838 O.2     
  17 O17           -1.5464    -6.1829     5.0749 O.3     
  18 C18            0.0514    -2.1650     3.7433 C.ar    
  19 C19           -1.0529    -1.4071     4.1351 C.ar    
  20 C20           -1.0487    -0.7686     5.3581 C.ar    
  21 C21            0.0473    -0.8785     6.1954 C.ar    
  22 C22            1.1455    -1.6281     5.8127 C.ar    
  23 C23            1.1513    -2.2766     4.5950 C.ar    
  24 H24            1.0042     1.8801     0.0026 H       
  25 H25           -0.5455     1.8639    -0.8728 H       
  26 H26           -0.5286     1.8543     0.9071 H       
  27 H27           -0.0065    -0.1309    -2.1335 H       
  28 H28            0.0262    -2.5852    -2.1825 H       
  29 H29            0.0201    -0.1510     2.1221 H       
  30 H30            0.6908    -5.9387     3.4603 H       
  31 H31            0.5208    -4.4558     4.4302 H       
  32 H32           -2.4662    -6.4130     5.2654 H       
  33 H33           -1.9088    -1.3202     3.4823 H       
  34 H34           -1.9025    -0.1814     5.6623 H       
  35 H35            0.0457    -0.3767     7.1518 H       
  36 H36            1.9981    -1.7096     6.4707 H       
  37 H37            2.0090    -2.8616     4.2975 H       
@<TRIPOS>BOND
   1    1    2 1
   2    1   24 1
   3    1   25 1
   4    1   26 1
   5    2    7 ar
   6    2    3 ar
   7    3    4 ar
   8    3   27 1
   9    4    5 ar
  10    4   28 1
  11    5   12 1
  12    5    6 ar
  13    6    7 ar
  14    6    8 1
  15    7   29 1
  16    8    9 2
  17    8   18 1
  18    9   10 1
  19    9   14 1
  20   10   11 2
  21   10   12 am
  22   12   13 1
  23   14   15 1
  24   14   30 1
  25   14   31 1
  26   15   16 2
  27   15   17 1
  28   17   32 1
  29   18   23 ar
  30   18   19 ar
  31   19   20 ar
  32   19   33 1
  33   20   21 ar
  34   20   34 1
  35   21   22 ar
  36   21   35 1
  37   22   23 ar
  38   22   36 1
  39   23   37 1

#	End of record

