#	Name: SM13_micro005
#	Creating user name:	bogdan
#	Creation time:	28. 12. 2017 23:57

#	Modifying user name:	bogdan
#	Modification time:	28. 12. 2017 23:57

#	Program:	corina 3.60 0028  24.02.2015

@<TRIPOS>MOLECULE
SM13_micro005
  39   41    0    0    0
SMALL
NO_CHARGES


@<TRIPOS>ATOM
   1 C1             1.5060     1.0721    -0.2685 C.3     
   2 C2             0.7258    -0.2098    -0.1311 C.ar    
   3 C3            -0.0130    -0.6866    -1.1988 C.ar    
   4 C4            -0.7307    -1.8621    -1.0768 C.ar    
   5 C5            -0.7116    -2.5646     0.1123 C.ar    
   6 C6             0.0296    -2.0889     1.1862 C.ar    
   7 C7             0.7538    -0.9101     1.0586 C.ar    
   8 N8             0.0508    -2.7970     2.3911 N.pl3   
   9 C9            -0.0356    -4.1749     2.3837 C.ar    
  10 C10           -0.1339    -4.9031     3.5930 C.ar    
  11 C11           -0.1482    -4.2683     4.8411 C.ar    
  12 C12           -0.2452    -5.0166     5.9795 C.ar    
  13 C13           -0.3301    -6.4146     5.9129 C.ar    
  14 C14           -0.3177    -7.0629     4.6981 C.ar    
  15 C15           -0.2200    -6.3152     3.5179 C.ar    
  16 N16           -0.2039    -6.8988     2.3093 N.ar    
  17 C17           -0.1114    -6.1722     1.2211 C.ar    
  18 N18           -0.0342    -4.8511     1.2423 N.ar    
  19 O19           -0.4253    -7.1374     7.0592 O.3     
  20 C20           -0.5088    -8.5576     6.9257 C.3     
  21 O21           -0.2590    -4.3991     7.1909 O.3     
  22 C22           -0.1689    -2.9729     7.1932 C.3     
  23 H23            2.5088     0.8498    -0.6335 H       
  24 H24            1.0004     1.7314    -0.9740 H       
  25 H25            1.5733     1.5623     0.7027 H       
  26 H26           -0.0297    -0.1393    -2.1296 H       
  27 H27           -1.3072    -2.2313    -1.9122 H       
  28 H28           -1.2727    -3.4825     0.2070 H       
  29 H29            1.3312    -0.5374     1.8918 H       
  30 H30            0.1263    -2.3204     3.2326 H       
  31 H31           -0.0826    -3.1921     4.9032 H       
  32 H32           -0.3829    -8.1401     4.6557 H       
  33 H33           -0.1008    -6.6743     0.2649 H       
  34 H34           -0.5802    -9.0119     7.9139 H       
  35 H35           -1.3923    -8.8164     6.3421 H       
  36 H36            0.3825    -8.9280     6.4191 H       
  37 H37           -0.1907    -2.6091     8.2204 H       
  38 H38            0.7637    -2.6670     6.7191 H       
  39 H39           -1.0111    -2.5548     6.6417 H       
@<TRIPOS>BOND
   1    1    2 1
   2    1   23 1
   3    1   24 1
   4    1   25 1
   5    2    7 ar
   6    2    3 ar
   7    3    4 ar
   8    3   26 1
   9    4    5 ar
  10    4   27 1
  11    5    6 ar
  12    5   28 1
  13    6    7 ar
  14    6    8 1
  15    7   29 1
  16    8    9 1
  17    8   30 1
  18    9   18 ar
  19    9   10 ar
  20   10   15 ar
  21   10   11 ar
  22   11   12 ar
  23   11   31 1
  24   12   13 ar
  25   12   21 1
  26   13   14 ar
  27   13   19 1
  28   14   15 ar
  29   14   32 1
  30   15   16 ar
  31   16   17 ar
  32   17   18 ar
  33   17   33 1
  34   19   20 1
  35   20   34 1
  36   20   35 1
  37   20   36 1
  38   21   22 1
  39   22   37 1
  40   22   38 1
  41   22   39 1

#	End of record

