#Caution: 
#Input/Original file: SM14_micro001.pdb 
#This SM14_micro001.mol2 is synthesized from SM14_micro001.pdb using Open Babel 2.3.0
#

@<TRIPOS>MOLECULE
SM14_micro001
 27 29 0 0 0
SMALL
GASTEIGER

@<TRIPOS>ATOM
      1  C1        -0.0170    1.3790    0.0100 C.ar    1  UNK1       -0.0616
      2  C2         1.1700    2.0890    0.0020 C.ar    1  UNK1       -0.0598
      3  C3         2.3770    1.4190   -0.0130 C.ar    1  UNK1       -0.0378
      4  C4         2.3990    0.0310   -0.0210 C.ar    1  UNK1        0.0481
      5  C5         1.2070   -0.6800   -0.0130 C.ar    1  UNK1       -0.0378
      6  C6         0.0020   -0.0040    0.0020 C.ar    1  UNK1       -0.0598
      7  N7         3.6230   -0.6520   -0.0360 N.ar    1  UNK1       -0.2985
      8  C8         4.6660   -0.4210   -0.8820 C.ar    1  UNK1        0.1015
      9  N9         5.6440   -1.2380   -0.6170 N.ar    1  UNK1       -0.2353
     10  C10        5.2980   -2.0490    0.4160 C.ar    1  UNK1        0.0911
     11  C11        4.0000   -1.6820    0.8080 C.ar    1  UNK1        0.0734
     12  C12        3.3760   -2.3460    1.8550 C.ar    1  UNK1       -0.0340
     13  C13        4.0320   -3.3670    2.5090 C.ar    1  UNK1       -0.0390
     14  C14        5.3200   -3.7360    2.1270 C.ar    1  UNK1        0.0267
     15  C15        5.9560   -3.0810    1.0890 C.ar    1  UNK1       -0.0136
     16  N16        5.9750   -4.7730    2.8000 N.pl3   1  UNK1       -0.3579
     17  H17       -0.9600    1.9050    0.0260 H       1  UNK1        0.0618
     18  H18        1.1520    3.1690    0.0080 H       1  UNK1        0.0618
     19  H19        3.3040    1.9750   -0.0190 H       1  UNK1        0.0638
     20  H20        1.2210   -1.7600   -0.0190 H       1  UNK1        0.0638
     21  H21       -0.9260   -0.5560    0.0080 H       1  UNK1        0.0618
     22  H22        4.6790    0.3290   -1.6580 H       1  UNK1        0.1032
     23  H23        2.3780   -2.0640    2.1560 H       1  UNK1        0.0639
     24  H24        3.5450   -3.8830    3.3240 H       1  UNK1        0.0637
     25  H25        6.9540   -3.3710    0.7950 H       1  UNK1        0.0658
     26  H26        5.5320   -5.2330    3.5310 H       1  UNK1        0.1423
     27  H27        6.8710   -5.0330    2.5360 H       1  UNK1        0.1423
@<TRIPOS>BOND
     1     1     6   ar
     2     1     2   ar
     3     1    17    1
     4     2     3   ar
     5     2    18    1
     6     3     4   ar
     7     3    19    1
     8     4     5   ar
     9     4     7    1
    10     5     6   ar
    11     5    20    1
    12     6    21    1
    13     7    11   ar
    14     7     8   ar
    15     8     9   ar
    16     8    22    1
    17     9    10   ar
    18    10    15   ar
    19    10    11   ar
    20    11    12   ar
    21    12    13   ar
    22    12    23    1
    23    13    14   ar
    24    13    24    1
    25    14    15   ar
    26    14    16    1
    27    15    25    1
    28    16    26    1
    29    16    27    1
