#	Name: SM14_micro001
#	Creating user name:	bogdan
#	Creation time:	28. 12. 2017 23:57

#	Modifying user name:	bogdan
#	Modification time:	28. 12. 2017 23:57

#	Program:	corina 3.60 0028  24.02.2015

@<TRIPOS>MOLECULE
SM14_micro001
  27   29    0    0    0
SMALL
NO_CHARGES


@<TRIPOS>ATOM
   1 C1            -0.0167     1.3786     0.0096 C.ar    
   2 C2             1.1696     2.0891     0.0021 C.ar    
   3 C3             2.3774     1.4191    -0.0130 C.ar    
   4 C4             2.3995     0.0308    -0.0206 C.ar    
   5 C5             1.2066    -0.6797    -0.0130 C.ar    
   6 C6             0.0021    -0.0041     0.0020 C.ar    
   7 N7             3.6230    -0.6517    -0.0364 N.2     
   8 C8             4.6659    -0.4213    -0.8816 C.2     
   9 N9             5.6443    -1.2375    -0.6172 N.pl3   
  10 C10            5.2983    -2.0486     0.4157 C.ar    
  11 C11            3.9998    -1.6821     0.8084 C.ar    
  12 C12            3.3763    -2.3465     1.8548 C.ar    
  13 C13            4.0318    -3.3668     2.5093 C.ar    
  14 C14            5.3197    -3.7365     2.1269 C.ar    
  15 C15            5.9557    -3.0813     1.0888 C.ar    
  16 N16            5.9746    -4.7734     2.8002 N.pl3   
  17 H17           -0.9598     1.9047     0.0260 H       
  18 H18            1.1518     3.1689     0.0077 H       
  19 H19            3.3036     1.9746    -0.0192 H       
  20 H20            1.2206    -1.7596    -0.0193 H       
  21 H21           -0.9261    -0.5562     0.0079 H       
  22 H22            4.6788     0.3291    -1.6583 H       
  23 H23            2.3784    -2.0641     2.1563 H       
  24 H24            3.5447    -3.8826     3.3235 H       
  25 H25            6.9540    -3.3707     0.7953 H       
  26 H26            5.5321    -5.2328     3.5309 H       
  27 H27            6.8712    -5.0330     2.5362 H       
@<TRIPOS>BOND
   1    1    6 ar
   2    1    2 ar
   3    1   17 1
   4    2    3 ar
   5    2   18 1
   6    3    4 ar
   7    3   19 1
   8    4    5 ar
   9    4    7 1
  10    5    6 ar
  11    5   20 1
  12    6   21 1
  13    7   11 1
  14    7    8 2
  15    8    9 1
  16    8   22 1
  17    9   10 1
  18   10   15 ar
  19   10   11 ar
  20   11   12 ar
  21   12   13 ar
  22   12   23 1
  23   13   14 ar
  24   13   24 1
  25   14   15 ar
  26   14   16 1
  27   15   25 1
  28   16   26 1
  29   16   27 1

#	End of record

